<?xml version="1.0" encoding="UTF-8"?>

<!-- generated on Sun Jun 23 11:45:03 2019 by SUMO netgenerate Version v0_31_0-812-g1d4338ab80
<?xml version="1.0" encoding="UTF-8"?>

<configuration xmlns:xsi="http://www.w3.org/2001/XMLSchema-instance" xsi:noNamespaceSchemaLocation="http://sumo.dlr.de/xsd/netgenerateConfiguration.xsd">

    <random_network>
        <rand value="true"/>
        <rand.iterations value="100"/>
    </random_network>

    <output>
        <output-file value="sumo_nets/myNet.net.xml"/>
    </output>

    <processing>
        <no-turnarounds value="true"/>
    </processing>

    <building_defaults>
        <default-junction-type value="traffic_light"/>
    </building_defaults>

    <random_number>
        <seed value="0"/>
    </random_number>

</configuration>
-->

<net version="0.27" xmlns:xsi="http://www.w3.org/2001/XMLSchema-instance" xsi:noNamespaceSchemaLocation="http://sumo.dlr.de/xsd/net_file.xsd">

    <location netOffset="922.58,1109.78" convBoundary="0.00,0.00,1990.02,2199.85" origBoundary="-922.58,-1109.78,1067.45,1090.07" projParameter="!"/>

    <edge id=":1_0" function="internal">
        <lane id=":1_0_0" index="0" speed="13.90" length="5.24" shape="926.68,1113.57 925.27,1113.12 924.12,1113.26 923.23,1113.99 922.61,1115.30"/>
    </edge>
    <edge id=":1_1" function="internal">
        <lane id=":1_1_0" index="0" speed="13.90" length="10.21" shape="926.68,1113.57 923.97,1112.27 922.10,1111.30 920.30,1110.22 917.78,1108.59"/>
    </edge>
    <edge id=":1_2" function="internal">
        <lane id=":1_2_0" index="0" speed="13.90" length="5.60" shape="926.68,1113.57 924.07,1111.82 922.80,1109.72"/>
    </edge>
    <edge id=":1_12" function="internal">
        <lane id=":1_12_0" index="0" speed="13.90" length="5.60" shape="922.80,1109.72 922.87,1107.27 924.29,1104.46"/>
    </edge>
    <edge id=":1_3" function="internal">
        <lane id=":1_3_0" index="0" speed="13.90" length="5.21" shape="926.99,1106.35 926.33,1107.66 926.30,1108.80 926.89,1109.78 928.10,1110.59"/>
    </edge>
    <edge id=":1_4" function="internal">
        <lane id=":1_4_0" index="0" speed="13.90" length="10.04" shape="926.99,1106.35 925.31,1108.80 924.28,1110.57 923.51,1112.47 922.61,1115.30"/>
    </edge>
    <edge id=":1_5" function="internal">
        <lane id=":1_5_0" index="0" speed="13.90" length="5.35" shape="926.99,1106.35 924.92,1108.63 922.89,1109.66"/>
    </edge>
    <edge id=":1_13" function="internal">
        <lane id=":1_13_0" index="0" speed="13.90" length="5.39" shape="922.89,1109.66 922.70,1109.75 920.32,1109.74 917.78,1108.59"/>
    </edge>
    <edge id=":1_6" function="internal">
        <lane id=":1_6_0" index="0" speed="13.90" length="5.52" shape="919.60,1105.83 920.85,1106.38 922.05,1106.33 923.19,1105.69 924.29,1104.46"/>
    </edge>
    <edge id=":1_7" function="internal">
        <lane id=":1_7_0" index="0" speed="13.90" length="9.76" shape="919.60,1105.83 922.02,1107.41 923.73,1108.43 925.49,1109.34 928.10,1110.59"/>
    </edge>
    <edge id=":1_8" function="internal">
        <lane id=":1_8_0" index="0" speed="13.90" length="5.20" shape="919.60,1105.83 921.63,1107.64 922.81,1109.82"/>
    </edge>
    <edge id=":1_14" function="internal">
        <lane id=":1_14_0" index="0" speed="13.90" length="5.54" shape="922.81,1109.82 923.14,1112.38 922.61,1115.30"/>
    </edge>
    <edge id=":1_9" function="internal">
        <lane id=":1_9_0" index="0" speed="13.90" length="6.46" shape="919.45,1114.33 919.79,1112.52 919.63,1110.97 918.96,1109.65 917.78,1108.59"/>
    </edge>
    <edge id=":1_10" function="internal">
        <lane id=":1_10_0" index="0" speed="13.90" length="11.06" shape="919.45,1114.33 920.42,1111.35 921.35,1109.14 922.53,1107.06 924.29,1104.46"/>
    </edge>
    <edge id=":1_11" function="internal">
        <lane id=":1_11_0" index="0" speed="13.90" length="5.69" shape="919.45,1114.33 920.79,1111.52 922.67,1109.96 922.80,1109.94"/>
    </edge>
    <edge id=":1_15" function="internal">
        <lane id=":1_15_0" index="0" speed="13.90" length="5.46" shape="922.80,1109.94 925.11,1109.65 928.10,1110.59"/>
    </edge>
    <edge id=":10_0" function="internal">
        <lane id=":10_0_0" index="0" speed="13.90" length="6.23" shape="873.95,1276.49 873.32,1274.66 872.43,1273.88 871.28,1274.16 869.88,1275.50"/>
    </edge>
    <edge id=":10_1" function="internal">
        <lane id=":10_1_0" index="0" speed="13.90" length="13.36" shape="873.95,1276.49 873.07,1273.08 871.89,1270.11 870.21,1267.42 867.84,1264.88"/>
    </edge>
    <edge id=":10_2" function="internal">
        <lane id=":10_2_0" index="0" speed="13.90" length="15.35" shape="873.95,1276.49 873.34,1272.72 873.13,1268.85 873.40,1264.99 874.21,1261.29"/>
    </edge>
    <edge id=":10_3" function="internal">
        <lane id=":10_3_0" index="0" speed="13.90" length="13.85" shape="873.95,1276.49 873.50,1272.04 874.37,1269.00 876.54,1267.37 880.03,1267.16"/>
    </edge>
    <edge id=":10_4" function="internal">
        <lane id=":10_4_0" index="0" speed="13.90" length="7.17" shape="879.64,1270.43 878.10,1270.60 877.17,1271.55 876.86,1273.29 877.17,1275.80"/>
    </edge>
    <edge id=":10_5" function="internal">
        <lane id=":10_5_0" index="0" speed="13.90" length="11.47" shape="879.64,1270.43 877.12,1270.52 874.65,1271.40 872.24,1273.05 869.88,1275.50"/>
    </edge>
    <edge id=":10_6" function="internal">
        <lane id=":10_6_0" index="0" speed="13.90" length="13.28" shape="879.64,1270.43 876.23,1269.79 873.27,1268.69 870.55,1267.08 867.84,1264.88"/>
    </edge>
    <edge id=":10_7" function="internal">
        <lane id=":10_7_0" index="0" speed="13.90" length="5.52" shape="879.64,1270.43 876.32,1269.51 874.79,1268.11"/>
    </edge>
    <edge id=":10_20" function="internal">
        <lane id=":10_20_0" index="0" speed="13.90" length="7.18" shape="874.79,1268.11 874.30,1267.67 873.60,1264.94 874.21,1261.29"/>
    </edge>
    <edge id=":10_8" function="internal">
        <lane id=":10_8_0" index="0" speed="13.90" length="6.65" shape="877.36,1262.26 877.02,1264.22 877.35,1265.69 878.35,1266.67 880.03,1267.16"/>
    </edge>
    <edge id=":10_9" function="internal">
        <lane id=":10_9_0" index="0" speed="13.90" length="13.70" shape="877.36,1262.26 876.56,1265.70 876.32,1268.99 876.56,1272.29 877.17,1275.80"/>
    </edge>
    <edge id=":10_10" function="internal">
        <lane id=":10_10_0" index="0" speed="13.90" length="15.29" shape="877.36,1262.26 876.02,1265.80 874.26,1269.22 872.18,1272.47 869.88,1275.50"/>
    </edge>
    <edge id=":10_11" function="internal">
        <lane id=":10_11_0" index="0" speed="13.90" length="6.68" shape="877.36,1262.26 875.75,1265.72 873.63,1267.31 873.41,1267.28"/>
    </edge>
    <edge id=":10_21" function="internal">
        <lane id=":10_21_0" index="0" speed="13.90" length="6.25" shape="873.41,1267.28 870.99,1267.03 867.84,1264.88"/>
    </edge>
    <edge id=":10_12" function="internal">
        <lane id=":10_12_0" index="0" speed="13.90" length="5.64" shape="870.05,1262.43 871.43,1263.37 872.58,1263.49 873.50,1262.80 874.21,1261.29"/>
    </edge>
    <edge id=":10_13" function="internal">
        <lane id=":10_13_0" index="0" speed="13.90" length="11.31" shape="870.05,1262.43 872.48,1264.50 874.57,1265.83 876.90,1266.64 880.03,1267.16"/>
    </edge>
    <edge id=":10_14" function="internal">
        <lane id=":10_14_0" index="0" speed="13.90" length="15.37" shape="870.05,1262.43 872.58,1265.25 874.61,1268.54 876.14,1272.12 877.17,1275.80"/>
    </edge>
    <edge id=":10_15" function="internal">
        <lane id=":10_15_0" index="0" speed="13.90" length="14.72" shape="870.05,1262.43 872.31,1265.31 873.04,1268.44 872.23,1271.84 869.88,1275.50"/>
    </edge>
    <edge id=":10_16" function="internal">
        <lane id=":10_16_0" index="0" speed="13.90" length="9.58" shape="867.33,1273.40 868.95,1270.94 869.58,1268.70 869.20,1266.68 867.84,1264.88"/>
    </edge>
    <edge id=":10_17" function="internal">
        <lane id=":10_17_0" index="0" speed="13.90" length="14.02" shape="867.33,1273.40 869.54,1270.55 871.41,1267.69 872.96,1264.65 874.21,1261.29"/>
    </edge>
    <edge id=":10_18" function="internal">
        <lane id=":10_18_0" index="0" speed="13.90" length="7.01" shape="867.33,1273.40 870.30,1270.36 872.60,1268.84"/>
    </edge>
    <edge id=":10_19" function="internal">
        <lane id=":10_19_0" index="0" speed="13.90" length="5.94" shape="867.33,1273.40 870.72,1270.17 871.94,1269.88"/>
    </edge>
    <edge id=":10_22" function="internal">
        <lane id=":10_22_0" index="0" speed="13.90" length="7.76" shape="872.60,1268.84 873.41,1268.31 876.65,1267.24 880.03,1267.16"/>
    </edge>
    <edge id=":10_23" function="internal">
        <lane id=":10_23_0" index="0" speed="13.90" length="9.14" shape="871.94,1269.88 873.50,1269.50 875.65,1271.37 877.17,1275.80"/>
    </edge>
    <edge id=":101_0" function="internal">
        <lane id=":101_0_0" index="0" speed="13.90" length="10.68" shape="382.63,1482.71 381.23,1479.97 379.94,1478.12 378.27,1476.59 375.77,1474.78"/>
    </edge>
    <edge id=":101_1" function="internal">
        <lane id=":101_1_0" index="0" speed="13.90" length="13.17" shape="382.63,1482.71 381.43,1479.48 380.98,1476.41 381.18,1473.29 381.95,1469.89"/>
    </edge>
    <edge id=":101_2" function="internal">
        <lane id=":101_2_0" index="0" speed="13.90" length="4.59" shape="382.63,1482.71 381.72,1479.53 382.01,1478.28"/>
    </edge>
    <edge id=":101_12" function="internal">
        <lane id=":101_12_0" index="0" speed="13.90" length="7.95" shape="382.01,1478.28 382.32,1477.00 384.42,1475.14 388.04,1473.94"/>
    </edge>
    <edge id=":101_3" function="internal">
        <lane id=":101_3_0" index="0" speed="13.90" length="6.21" shape="388.69,1477.17 386.77,1477.77 385.62,1478.66 385.23,1479.84 385.61,1481.30"/>
    </edge>
    <edge id=":101_4" function="internal">
        <lane id=":101_4_0" index="0" speed="13.90" length="13.50" shape="388.69,1477.17 385.12,1477.57 381.78,1477.31 378.66,1476.38 375.77,1474.78"/>
    </edge>
    <edge id=":101_5" function="internal">
        <lane id=":101_5_0" index="0" speed="13.90" length="13.20" shape="388.69,1477.17 384.77,1477.41 382.35,1476.28 381.40,1473.77 381.95,1469.89"/>
    </edge>
    <edge id=":101_6" function="internal">
        <lane id=":101_6_0" index="0" speed="13.90" length="5.72" shape="385.13,1470.78 384.89,1472.46 385.30,1473.55 386.35,1474.04 388.04,1473.94"/>
    </edge>
    <edge id=":101_7" function="internal">
        <lane id=":101_7_0" index="0" speed="13.90" length="10.90" shape="385.13,1470.78 384.33,1473.82 384.06,1476.15 384.44,1478.43 385.61,1481.30"/>
    </edge>
    <edge id=":101_8" function="internal">
        <lane id=":101_8_0" index="0" speed="13.90" length="5.94" shape="385.13,1470.78 383.61,1474.32 382.05,1475.72"/>
    </edge>
    <edge id=":101_13" function="internal">
        <lane id=":101_13_0" index="0" speed="13.90" length="6.81" shape="382.05,1475.72 381.55,1476.17 378.94,1476.32 375.77,1474.78"/>
    </edge>
    <edge id=":101_9" function="internal">
        <lane id=":101_9_0" index="0" speed="13.90" length="6.02" shape="377.66,1472.07 379.08,1472.74 380.27,1472.59 381.22,1471.64 381.95,1469.89"/>
    </edge>
    <edge id=":101_10" function="internal">
        <lane id=":101_10_0" index="0" speed="13.90" length="10.84" shape="377.66,1472.07 379.96,1473.33 382.45,1474.07 385.15,1474.27 388.04,1473.94"/>
    </edge>
    <edge id=":101_11" function="internal">
        <lane id=":101_11_0" index="0" speed="13.90" length="12.36" shape="377.66,1472.07 380.33,1474.08 382.37,1476.06 384.04,1478.35 385.61,1481.30"/>
    </edge>
    <edge id=":109_0" function="internal">
        <lane id=":109_0_0" index="0" speed="13.90" length="8.35" shape="789.17,1604.76 787.87,1602.66 786.83,1601.32 785.63,1600.11 783.81,1598.42"/>
    </edge>
    <edge id=":109_1" function="internal">
        <lane id=":109_1_0" index="0" speed="13.90" length="4.47" shape="789.17,1604.76 788.35,1602.67 788.29,1600.45"/>
    </edge>
    <edge id=":109_6" function="internal">
        <lane id=":109_6_0" index="0" speed="13.90" length="5.34" shape="788.29,1600.45 788.98,1598.09 790.44,1595.60"/>
    </edge>
    <edge id=":109_2" function="internal">
        <lane id=":109_2_0" index="0" speed="13.90" length="5.99" shape="793.12,1597.52 792.15,1599.13 791.64,1600.59 791.59,1601.90 792.01,1603.07"/>
    </edge>
    <edge id=":109_3" function="internal">
        <lane id=":109_3_0" index="0" speed="13.90" length="11.03" shape="793.12,1597.52 790.99,1599.74 788.73,1600.63 786.33,1600.19 783.81,1598.42"/>
    </edge>
    <edge id=":109_4" function="internal">
        <lane id=":109_4_0" index="0" speed="13.90" length="5.17" shape="786.07,1596.02 787.26,1596.85 788.38,1597.06 789.44,1596.64 790.44,1595.60"/>
    </edge>
    <edge id=":109_5" function="internal">
        <lane id=":109_5_0" index="0" speed="13.90" length="9.27" shape="786.07,1596.02 788.09,1597.90 789.42,1599.24 790.56,1600.74 792.01,1603.07"/>
    </edge>
    <edge id=":115_0" function="internal">
        <lane id=":115_0_0" index="0" speed="13.90" length="5.47" shape="1279.82,1013.88 1278.37,1013.54 1277.00,1013.48 1275.72,1013.70 1274.52,1014.21"/>
    </edge>
    <edge id=":115_1" function="internal">
        <lane id=":115_1_0" index="0" speed="13.90" length="3.86" shape="1279.82,1013.88 1277.72,1012.88 1276.62,1011.82"/>
    </edge>
    <edge id=":115_6" function="internal">
        <lane id=":115_6_0" index="0" speed="13.90" length="4.98" shape="1276.62,1011.82 1276.21,1011.43 1275.32,1009.55 1275.03,1007.23"/>
    </edge>
    <edge id=":115_2" function="internal">
        <lane id=":115_2_0" index="0" speed="13.90" length="4.65" shape="1278.33,1007.25 1278.48,1008.47 1278.95,1009.46 1279.74,1010.22 1280.85,1010.75"/>
    </edge>
    <edge id=":115_3" function="internal">
        <lane id=":115_3_0" index="0" speed="13.90" length="8.33" shape="1278.33,1007.25 1278.08,1009.50 1277.37,1011.40 1276.18,1012.98 1274.52,1014.21"/>
    </edge>
    <edge id=":115_4" function="internal">
        <lane id=":115_4_0" index="0" speed="13.90" length="4.85" shape="1272.90,1011.34 1273.83,1010.63 1274.49,1009.71 1274.89,1008.58 1275.03,1007.23"/>
    </edge>
    <edge id=":115_5" function="internal">
        <lane id=":115_5_0" index="0" speed="13.90" length="8.21" shape="1272.90,1011.34 1274.74,1010.54 1276.68,1010.18 1278.71,1010.25 1280.85,1010.75"/>
    </edge>
    <edge id=":1421_0" function="internal">
        <lane id=":1421_0_0" index="0" speed="13.90" length="7.22" shape="1692.50,867.66 1693.06,869.53 1692.94,871.18 1692.13,872.64 1690.63,873.88"/>
    </edge>
    <edge id=":1421_1" function="internal">
        <lane id=":1421_1_0" index="0" speed="13.90" length="2.36" shape="1688.89,871.08 1689.38,870.67 1689.64,870.20 1689.68,869.65 1689.50,869.05"/>
    </edge>
    <edge id=":2_0" function="internal">
        <lane id=":2_0_0" index="0" speed="13.90" length="6.81" shape="773.30,1013.23 771.80,1012.51 770.22,1012.30 768.58,1012.59 766.86,1013.38"/>
    </edge>
    <edge id=":2_1" function="internal">
        <lane id=":2_1_0" index="0" speed="13.90" length="11.51" shape="773.30,1013.23 770.70,1011.37 768.82,1009.66 767.16,1007.71 765.23,1005.15"/>
    </edge>
    <edge id=":2_2" function="internal">
        <lane id=":2_2_0" index="0" speed="13.90" length="5.25" shape="773.30,1013.23 771.32,1011.33 770.48,1008.97"/>
    </edge>
    <edge id=":2_12" function="internal">
        <lane id=":2_12_0" index="0" speed="13.90" length="6.37" shape="770.48,1008.97 770.76,1006.17 772.19,1002.92"/>
    </edge>
    <edge id=":2_3" function="internal">
        <lane id=":2_3_0" index="0" speed="13.90" length="6.57" shape="775.05,1004.55 774.14,1006.52 773.85,1008.17 774.17,1009.49 775.11,1010.48"/>
    </edge>
    <edge id=":2_4" function="internal">
        <lane id=":2_4_0" index="0" speed="13.90" length="12.21" shape="775.05,1004.55 773.33,1007.40 771.64,1009.63 769.61,1011.53 766.86,1013.38"/>
    </edge>
    <edge id=":2_5" function="internal">
        <lane id=":2_5_0" index="0" speed="13.90" length="6.27" shape="775.05,1004.55 772.76,1007.52 770.47,1008.56"/>
    </edge>
    <edge id=":2_13" function="internal">
        <lane id=":2_13_0" index="0" speed="13.90" length="6.49" shape="770.47,1008.56 770.37,1008.60 767.85,1007.81 765.23,1005.15"/>
    </edge>
    <edge id=":2_6" function="internal">
        <lane id=":2_6_0" index="0" speed="13.90" length="5.60" shape="767.87,1003.18 769.03,1004.35 770.13,1004.69 771.18,1004.22 772.19,1002.92"/>
    </edge>
    <edge id=":2_7" function="internal">
        <lane id=":2_7_0" index="0" speed="13.90" length="10.38" shape="767.87,1003.18 769.68,1005.62 771.05,1007.30 772.64,1008.74 775.11,1010.48"/>
    </edge>
    <edge id=":2_8" function="internal">
        <lane id=":2_8_0" index="0" speed="13.90" length="5.93" shape="767.87,1003.18 769.67,1006.31 770.03,1008.60"/>
    </edge>
    <edge id=":2_14" function="internal">
        <lane id=":2_14_0" index="0" speed="13.90" length="6.02" shape="770.03,1008.60 770.10,1009.05 769.16,1011.41 766.86,1013.38"/>
    </edge>
    <edge id=":2_9" function="internal">
        <lane id=":2_9_0" index="0" speed="13.90" length="6.24" shape="765.18,1010.54 766.24,1009.57 766.60,1008.35 766.26,1006.88 765.23,1005.15"/>
    </edge>
    <edge id=":2_10" function="internal">
        <lane id=":2_10_0" index="0" speed="13.90" length="10.55" shape="765.18,1010.54 767.74,1008.88 769.36,1007.40 770.65,1005.58 772.19,1002.92"/>
    </edge>
    <edge id=":2_11" function="internal">
        <lane id=":2_11_0" index="0" speed="13.90" length="5.07" shape="765.18,1010.54 767.78,1009.36 769.96,1009.01"/>
    </edge>
    <edge id=":2_15" function="internal">
        <lane id=":2_15_0" index="0" speed="13.90" length="5.45" shape="769.96,1009.01 770.30,1008.95 772.75,1009.33 775.11,1010.48"/>
    </edge>
    <edge id=":20_0" function="internal">
        <lane id=":20_0_0" index="0" speed="13.90" length="9.75" shape="1128.74,1208.21 1125.97,1208.91 1124.17,1209.72 1122.47,1210.81 1120.00,1212.32"/>
    </edge>
    <edge id=":20_1" function="internal">
        <lane id=":20_1_0" index="0" speed="13.90" length="11.24" shape="1128.74,1208.21 1125.66,1208.45 1123.33,1207.89 1121.08,1206.74 1118.23,1205.23"/>
    </edge>
    <edge id=":20_2" function="internal">
        <lane id=":20_2_0" index="0" speed="13.90" length="9.20" shape="1119.65,1202.25 1122.05,1203.61 1123.75,1204.65 1125.52,1205.17 1128.12,1204.97"/>
    </edge>
    <edge id=":20_3" function="internal">
        <lane id=":20_3_0" index="0" speed="13.90" length="14.41" shape="1119.65,1202.25 1123.36,1204.65 1124.65,1207.12 1123.53,1209.68 1120.00,1212.32"/>
    </edge>
    <edge id=":20_4" function="internal">
        <lane id=":20_4_0" index="0" speed="13.90" length="6.04" shape="1118.37,1209.45 1119.85,1208.35 1120.32,1207.27 1119.78,1206.23 1118.23,1205.23"/>
    </edge>
    <edge id=":20_5" function="internal">
        <lane id=":20_5_0" index="0" speed="13.90" length="10.82" shape="1118.37,1209.45 1121.04,1207.85 1123.04,1206.64 1125.14,1205.72 1128.12,1204.97"/>
    </edge>
    <edge id=":22_0" function="internal">
        <lane id=":22_0_0" index="0" speed="13.90" length="6.39" shape="706.76,926.59 705.38,925.13 704.24,924.79 703.35,925.57 702.70,927.47"/>
    </edge>
    <edge id=":22_1" function="internal">
        <lane id=":22_1_0" index="0" speed="13.90" length="11.83" shape="706.76,926.59 704.46,924.13 701.98,922.70 699.32,922.30 696.48,922.93"/>
    </edge>
    <edge id=":22_2" function="internal">
        <lane id=":22_2_0" index="0" speed="13.90" length="16.17" shape="695.27,919.86 699.23,918.95 702.91,919.44 706.30,921.33 709.41,924.62"/>
    </edge>
    <edge id=":22_3" function="internal">
        <lane id=":22_3_0" index="0" speed="13.90" length="8.56" shape="695.27,919.86 699.45,918.88 702.07,919.83 702.60,921.21"/>
    </edge>
    <edge id=":22_6" function="internal">
        <lane id=":22_6_0" index="0" speed="13.90" length="6.38" shape="702.60,921.21 703.16,922.69 702.70,927.47"/>
    </edge>
    <edge id=":22_4" function="internal">
        <lane id=":22_4_0" index="0" speed="13.90" length="6.76" shape="699.47,926.78 699.73,924.48 699.31,923.08 698.23,922.56 696.48,922.93"/>
    </edge>
    <edge id=":22_5" function="internal">
        <lane id=":22_5_0" index="0" speed="13.90" length="15.63" shape="699.47,926.78 701.06,922.13 703.25,920.22 706.03,921.05 709.41,924.62"/>
    </edge>
    <edge id=":222_0" function="internal">
        <lane id=":222_0_0" index="0" speed="13.90" length="5.46" shape="818.38,720.31 817.89,718.81 817.07,718.00 815.93,717.87 814.46,718.44"/>
    </edge>
    <edge id=":222_1" function="internal">
        <lane id=":222_1_0" index="0" speed="13.90" length="9.79" shape="818.38,720.31 817.86,717.45 817.53,715.48 817.29,713.51 817.07,710.61"/>
    </edge>
    <edge id=":222_2" function="internal">
        <lane id=":222_2_0" index="0" speed="13.90" length="9.43" shape="820.36,710.40 820.58,713.19 820.81,715.09 821.13,716.98 821.63,719.73"/>
    </edge>
    <edge id=":222_3" function="internal">
        <lane id=":222_3_0" index="0" speed="13.90" length="4.58" shape="820.36,710.40 820.11,712.62 819.04,714.71"/>
    </edge>
    <edge id=":222_6" function="internal">
        <lane id=":222_6_0" index="0" speed="13.90" length="5.94" shape="819.04,714.71 817.15,716.64 814.46,718.44"/>
    </edge>
    <edge id=":222_4" function="internal">
        <lane id=":222_4_0" index="0" speed="13.90" length="6.80" shape="812.86,715.55 814.76,714.33 816.10,713.10 816.87,711.86 817.07,710.61"/>
    </edge>
    <edge id=":222_5" function="internal">
        <lane id=":222_5_0" index="0" speed="13.90" length="12.20" shape="812.86,715.55 816.15,714.29 818.71,714.57 820.54,716.38 821.63,719.73"/>
    </edge>
    <edge id=":225_0" function="internal">
        <lane id=":225_0_0" index="0" speed="13.90" length="11.26" shape="633.36,818.90 630.56,820.38 628.29,821.33 625.91,821.96 622.79,822.51"/>
    </edge>
    <edge id=":225_1" function="internal">
        <lane id=":225_1_0" index="0" speed="13.90" length="5.76" shape="633.36,818.90 630.41,820.01 627.96,819.82 627.85,819.73"/>
    </edge>
    <edge id=":225_6" function="internal">
        <lane id=":225_6_0" index="0" speed="13.90" length="5.51" shape="627.85,819.73 626.00,818.31 624.54,815.49"/>
    </edge>
    <edge id=":225_2" function="internal">
        <lane id=":225_2_0" index="0" speed="13.90" length="5.26" shape="627.65,814.40 628.33,815.72 629.25,816.43 630.39,816.53 631.76,816.01"/>
    </edge>
    <edge id=":225_3" function="internal">
        <lane id=":225_3_0" index="0" speed="13.90" length="11.30" shape="627.65,814.40 628.26,817.52 627.66,819.92 625.83,821.58 622.79,822.51"/>
    </edge>
    <edge id=":225_4" function="internal">
        <lane id=":225_4_0" index="0" speed="13.90" length="5.23" shape="622.28,819.25 623.69,818.82 624.54,818.05 624.82,816.94 624.54,815.49"/>
    </edge>
    <edge id=":225_5" function="internal">
        <lane id=":225_5_0" index="0" speed="13.90" length="10.11" shape="622.28,819.25 625.23,818.76 627.24,818.25 629.13,817.43 631.76,816.01"/>
    </edge>
    <edge id=":229_0" function="internal">
        <lane id=":229_0_0" index="0" speed="13.90" length="6.48" shape="342.84,1016.95 341.29,1015.60 340.12,1015.38 339.33,1016.27 338.93,1018.28"/>
    </edge>
    <edge id=":229_1" function="internal">
        <lane id=":229_1_0" index="0" speed="13.90" length="12.66" shape="342.84,1016.95 340.14,1014.51 337.36,1013.02 334.50,1012.49 331.57,1012.90"/>
    </edge>
    <edge id=":229_2" function="internal">
        <lane id=":229_2_0" index="0" speed="13.90" length="16.01" shape="342.84,1016.95 340.17,1014.09 337.32,1011.15 334.41,1008.26 331.57,1005.59"/>
    </edge>
    <edge id=":229_3" function="internal">
        <lane id=":229_3_0" index="0" speed="13.90" length="8.21" shape="342.84,1016.95 340.03,1013.30 338.60,1009.99"/>
    </edge>
    <edge id=":229_20" function="internal">
        <lane id=":229_20_0" index="0" speed="13.90" length="5.90" shape="338.60,1009.99 338.56,1007.03 339.89,1004.41"/>
    </edge>
    <edge id=":229_4" function="internal">
        <lane id=":229_4_0" index="0" speed="13.90" length="9.37" shape="342.43,1006.51 341.78,1008.03 342.03,1009.90 343.20,1012.13 345.27,1014.72"/>
    </edge>
    <edge id=":229_5" function="internal">
        <lane id=":229_5_0" index="0" speed="13.90" length="12.53" shape="342.43,1006.51 340.60,1009.28 339.64,1011.97 339.20,1014.88 338.93,1018.28"/>
    </edge>
    <edge id=":229_6" function="internal">
        <lane id=":229_6_0" index="0" speed="13.90" length="12.83" shape="342.43,1006.51 340.06,1008.94 337.60,1010.62 334.84,1011.84 331.57,1012.90"/>
    </edge>
    <edge id=":229_7" function="internal">
        <lane id=":229_7_0" index="0" speed="13.90" length="12.48" shape="342.43,1006.51 340.16,1008.37 337.60,1008.84 334.73,1007.91 331.57,1005.59"/>
    </edge>
    <edge id=":229_8" function="internal">
        <lane id=":229_8_0" index="0" speed="13.90" length="7.02" shape="333.79,1003.15 335.70,1004.62 337.35,1005.32 338.75,1005.25 339.89,1004.41"/>
    </edge>
    <edge id=":229_9" function="internal">
        <lane id=":229_9_0" index="0" speed="13.90" length="16.31" shape="333.79,1003.15 336.67,1005.86 339.65,1008.81 342.58,1011.83 345.27,1014.72"/>
    </edge>
    <edge id=":229_10" function="internal">
        <lane id=":229_10_0" index="0" speed="13.90" length="7.83" shape="333.79,1003.15 336.34,1006.13 338.05,1009.64"/>
    </edge>
    <edge id=":229_11" function="internal">
        <lane id=":229_11_0" index="0" speed="13.90" length="6.32" shape="333.79,1003.15 336.46,1006.32 336.88,1008.46"/>
    </edge>
    <edge id=":229_21" function="internal">
        <lane id=":229_21_0" index="0" speed="13.90" length="8.73" shape="338.05,1009.64 338.91,1013.70 338.93,1018.28"/>
    </edge>
    <edge id=":229_22" function="internal">
        <lane id=":229_22_0" index="0" speed="13.90" length="7.45" shape="336.88,1008.46 336.99,1009.01 335.35,1011.20 331.57,1012.90"/>
    </edge>
    <edge id=":229_12" function="internal">
        <lane id=":229_12_0" index="0" speed="13.90" length="5.87" shape="330.62,1009.74 332.23,1009.02 332.93,1008.08 332.71,1006.94 331.57,1005.59"/>
    </edge>
    <edge id=":229_13" function="internal">
        <lane id=":229_13_0" index="0" speed="13.90" length="10.95" shape="330.62,1009.74 333.64,1008.85 335.85,1007.98 337.77,1006.67 339.89,1004.41"/>
    </edge>
    <edge id=":229_14" function="internal">
        <lane id=":229_14_0" index="0" speed="13.90" length="16.37" shape="330.62,1009.74 334.51,1009.16 338.25,1009.80 341.84,1011.65 345.27,1014.72"/>
    </edge>
    <edge id=":229_15" function="internal">
        <lane id=":229_15_0" index="0" speed="13.90" length="15.13" shape="330.62,1009.74 334.61,1009.24 337.32,1010.49 338.76,1013.51 338.93,1018.28"/>
    </edge>
    <edge id=":229_16" function="internal">
        <lane id=":229_16_0" index="0" speed="13.90" length="8.20" shape="335.64,1018.01 335.59,1015.26 334.89,1013.49 333.55,1012.70 331.57,1012.90"/>
    </edge>
    <edge id=":229_17" function="internal">
        <lane id=":229_17_0" index="0" speed="13.90" length="13.54" shape="335.64,1018.01 335.64,1014.20 334.96,1010.86 333.60,1007.99 331.57,1005.59"/>
    </edge>
    <edge id=":229_18" function="internal">
        <lane id=":229_18_0" index="0" speed="13.90" length="14.47" shape="335.64,1018.01 336.03,1014.32 336.72,1010.78 337.94,1007.46 339.89,1004.41"/>
    </edge>
    <edge id=":229_19" function="internal">
        <lane id=":229_19_0" index="0" speed="13.90" length="7.15" shape="335.64,1018.01 336.64,1013.05 338.02,1011.48"/>
    </edge>
    <edge id=":229_23" function="internal">
        <lane id=":229_23_0" index="0" speed="13.90" length="8.82" shape="338.02,1011.48 338.58,1010.86 341.46,1011.41 345.27,1014.72"/>
    </edge>
    <edge id=":231_0" function="internal">
        <lane id=":231_0_0" index="0" speed="13.90" length="9.05" shape="473.23,637.90 472.81,636.60 471.54,635.25 469.43,633.85 466.47,632.40"/>
    </edge>
    <edge id=":231_1" function="internal">
        <lane id=":231_1_0" index="0" speed="13.90" length="11.58" shape="473.23,637.90 473.07,634.70 472.60,632.18 471.87,629.70 470.91,626.62"/>
    </edge>
    <edge id=":231_2" function="internal">
        <lane id=":231_2_0" index="0" speed="13.90" length="12.51" shape="474.08,625.69 475.06,628.92 475.84,631.72 476.35,634.56 476.53,637.90"/>
    </edge>
    <edge id=":231_3" function="internal">
        <lane id=":231_3_0" index="0" speed="13.90" length="6.66" shape="474.08,625.69 474.87,630.42 474.23,632.16"/>
    </edge>
    <edge id=":231_6" function="internal">
        <lane id=":231_6_0" index="0" speed="13.90" length="8.70" shape="474.23,632.16 473.87,633.12 471.07,633.78 466.47,632.40"/>
    </edge>
    <edge id=":231_4" function="internal">
        <lane id=":231_4_0" index="0" speed="13.90" length="6.31" shape="467.79,629.38 469.68,629.94 470.83,629.67 471.24,628.56 470.91,626.62"/>
    </edge>
    <edge id=":231_5" function="internal">
        <lane id=":231_5_0" index="0" speed="13.90" length="12.83" shape="467.79,629.38 471.61,631.34 474.35,633.41 475.99,635.60 476.53,637.90"/>
    </edge>
    <edge id=":235_0" function="internal">
        <lane id=":235_0_0" index="0" speed="13.90" length="6.22" shape="1072.77,1494.72 1071.77,1493.20 1070.87,1492.30 1069.73,1491.69 1068.01,1491.06"/>
    </edge>
    <edge id=":235_1" function="internal">
        <lane id=":235_1_0" index="0" speed="13.90" length="4.17" shape="1072.77,1494.72 1071.93,1492.75 1071.73,1490.73"/>
    </edge>
    <edge id=":235_6" function="internal">